Data/networks/opendssNetworks/network_3/Feeder_1/LineCode.txt
New LineCode.16_PSC nphases=3 R1=1.15 X1=0.088 R0=1.2 X0=0.088 C1=0 C0=0 Units=km
New LineCode.35_SAC_XC nphases=3 R1=0.868 X1=0.077 R0=0.91 X0=0.077 C1=0 C0=0 Units=km
New LineCode.25_SAC_XC nphases=3 R1=1.2 X1=0.079 R0=1.3 X0=0.079 C1=0 C0=0 Units=km
New LineCode.2c_.007 nphases=3 R1=3.97 X1=0.099 R0=3.97 X0=0.099 C1=0 C0=0 Units=km
New LineCode.2c_.0225_DSTA nphases=3 R1=1.257 X1=0.085 R0=1.257 X0=0.085 C1=0 C0=0 Units=km
New LineCode.3c_25_SAC nphases=3 R1=1.2 X1=0.077 R0=5.1 X0=0.116 C1=0 C0=0 Units=km
New LineCode.4_XC nphases=3 R1=4.61 X1=0.091 R0=4.8 X0=0.091 C1=0 C0=0 Units=km
New LineCode.4_XSC nphases=3 R1=4.61 X1=0.091 R0=4.8 X0=0.091 C1=0 C0=0 Units=km
New LineCode.4c_.0225 nphases=3 R1=1.257 X1=0.086 R0=3.83 X0=0.102 C1=0 C0=0 Units=km
New LineCode.4c_.04 nphases=3 R1=0.708 X1=0.079 R0=2.32 X0=0.093 C1=0 C0=0 Units=km
New LineCode.4c_.06 nphases=3 R1=0.469 X1=0.075 R0=1.581 X0=0.091 C1=0 C0=0 Units=km
New LineCode.4c_.1 nphases=3 R1=0.274 X1=0.073 R0=0.959 X0=0.079 C1=0 C0=0 Units=km
New LineCode.4c_.1_SAC nphases=3 R1=0.451 X1=0.073 R0=1.49 X0=0.092 C1=0 C0=0 Units=km
New LineCode.4c_.2 nphases=3 R1=0.15 X1=0.069 R0=0.533 X0=0.078 C1=0 C0=0 Units=km
New LineCode.4c_.2_DSTA nphases=3 R1=0.15 X1=0.069 R0=0.533 X0=0.078 C1=0 C0=0 Units=km
